Version 4
SHEET 1 1160 680
WIRE 608 -256 336 -256
WIRE 880 -256 608 -256
WIRE 1104 -256 880 -256
WIRE 336 -224 336 -256
WIRE 432 -224 336 -224
WIRE 608 -208 608 -256
WIRE 704 -208 608 -208
WIRE 880 -176 880 -256
WIRE 976 -176 880 -176
WIRE 336 -144 336 -224
WIRE 432 -144 384 -144
WIRE 608 -128 608 -208
WIRE 704 -128 656 -128
WIRE 880 -96 880 -176
WIRE 976 -96 928 -96
WIRE 16 -48 -48 -48
WIRE 336 -48 336 -80
WIRE 336 -48 96 -48
WIRE 608 -16 608 -64
WIRE 608 -16 192 -16
WIRE 1104 -16 1104 -256
WIRE 880 16 880 -32
WIRE 880 16 240 16
WIRE 336 48 336 -48
WIRE 432 48 336 48
WIRE -48 64 -48 -48
WIRE -48 64 -128 64
WIRE 16 64 -48 64
WIRE 192 64 192 -16
WIRE 192 64 96 64
WIRE 608 64 608 -16
WIRE 704 64 608 64
WIRE 880 64 880 16
WIRE 976 64 880 64
WIRE 336 128 336 48
WIRE 432 128 384 128
WIRE 608 144 608 64
WIRE 704 144 656 144
WIRE 880 144 880 64
WIRE 976 144 928 144
WIRE -48 176 -48 64
WIRE 16 176 -48 176
WIRE 240 176 240 16
WIRE 240 176 96 176
WIRE 336 272 336 192
WIRE 608 272 608 208
WIRE 608 272 336 272
WIRE 880 272 880 208
WIRE 880 272 608 272
WIRE 1104 272 1104 64
WIRE 1104 272 880 272
WIRE 608 304 608 272
FLAG 608 304 0
SYMBOL Misc\\SCR 352 192 R180
SYMATTR InstName U2
SYMATTR Value TN3050H-12LY
SYMBOL res 1088 -32 R0
SYMATTR InstName R1
SYMATTR Value 1k
SYMBOL voltage 112 -48 R90
WINDOW 0 -32 56 VBottom 2
WINDOW 3 32 56 VTop 2
WINDOW 123 0 0 Left 0
WINDOW 39 0 0 Left 0
SYMATTR InstName V2
SYMATTR Value SINE(0 230 50 0 0 0)
SYMBOL voltage 112 64 R90
WINDOW 0 -32 56 VBottom 2
WINDOW 3 32 56 VTop 2
WINDOW 123 0 0 Left 0
WINDOW 39 0 0 Left 0
SYMATTR InstName V3
SYMATTR Value SINE(0 230 50 0 0 -120)
SYMBOL voltage 112 176 R90
WINDOW 0 -32 56 VBottom 2
WINDOW 3 32 56 VTop 2
WINDOW 123 0 0 Left 0
WINDOW 39 0 0 Left 0
SYMATTR InstName V4
SYMATTR Value SINE(0 230 50 0 0 -240)
SYMBOL Misc\\SCR 352 -80 R180
SYMATTR InstName U7
SYMATTR Value TN3050H-12LY
SYMBOL voltage 432 -240 R0
WINDOW 3 -88 153 Left 2
WINDOW 123 0 0 Left 0
WINDOW 39 0 0 Left 0
SYMATTR Value PULSE(0 5 1.67m 1u 1u 10m 20m)
SYMATTR InstName V5
SYMBOL Misc\\SCR 624 -64 R180
SYMATTR InstName U1
SYMATTR Value TN3050H-12LY
SYMBOL Misc\\SCR 896 -32 R180
SYMATTR InstName U3
SYMATTR Value TN3050H-12LY
SYMBOL Misc\\SCR 624 208 R180
SYMATTR InstName U4
SYMATTR Value TN3050H-12LY
SYMBOL Misc\\SCR 896 208 R180
SYMATTR InstName U5
SYMATTR Value TN3050H-12LY
SYMBOL voltage 704 -224 R0
WINDOW 3 -88 153 Left 2
WINDOW 123 0 0 Left 0
WINDOW 39 0 0 Left 0
SYMATTR Value PULSE(0 5 8.33m 1u 1u 10m 20m)
SYMATTR InstName V1
SYMBOL voltage 976 -192 R0
WINDOW 3 -88 153 Left 2
WINDOW 123 0 0 Left 0
WINDOW 39 0 0 Left 0
SYMATTR Value PULSE(0 5 15m 1u 1u 10m 20m)
SYMATTR InstName V6
SYMBOL voltage 976 48 R0
WINDOW 3 -88 153 Left 2
WINDOW 123 0 0 Left 0
WINDOW 39 0 0 Left 0
SYMATTR Value PULSE(0 5 5m 1u 1u 10m 20m)
SYMATTR InstName V7
SYMBOL voltage 704 48 R0
WINDOW 3 -88 153 Left 2
WINDOW 123 0 0 Left 0
WINDOW 39 0 0 Left 0
SYMATTR Value PULSE(0 5 18.33m 1u 1u 10m 20m)
SYMATTR InstName V8
SYMBOL voltage 432 32 R0
WINDOW 3 -88 153 Left 2
WINDOW 123 0 0 Left 0
WINDOW 39 0 0 Left 0
SYMATTR Value PULSE(0 5 11.67m 1u 1u 10m 20m)
SYMATTR InstName V9
TEXT 112 376 Left 2 !.inc C:\\Users\\mohammad asfraf\\OneDrive\\Documents\\LTspiceXVII\\lib\\st_high-temperature_scr_pspice\\st_high-temperature_scr.lib
TEXT -56 392 Left 2 !.tran 0.1
