Version 4
SHEET 1 880 680
WIRE 352 0 304 0
WIRE 448 0 432 0
WIRE 240 48 176 48
WIRE 352 48 304 48
WIRE 144 80 80 80
WIRE 176 80 176 48
WIRE 176 80 144 80
WIRE 352 80 352 48
WIRE 448 80 448 0
WIRE 448 80 352 80
WIRE 176 112 176 80
WIRE 240 112 176 112
WIRE 352 112 352 80
WIRE 352 112 304 112
WIRE 80 128 80 80
WIRE 448 128 448 80
WIRE 144 176 144 80
WIRE 160 176 144 176
WIRE 240 176 240 160
WIRE 80 240 80 208
WIRE 304 240 80 240
WIRE 448 240 448 208
WIRE 448 240 304 240
WIRE 304 256 304 240
FLAG 304 256 0
SYMBOL voltage 80 112 R0
WINDOW 3 -145 93 Left 2
WINDOW 123 0 0 Left 0
WINDOW 39 0 0 Left 0
SYMATTR InstName V1
SYMATTR Value SINE(0 120 50 0)
SYMBOL res 432 112 R0
SYMATTR InstName R1
SYMATTR Value 5
SYMBOL Misc\\SCR 240 32 M90
WINDOW 3 -1 259 VLeft 2
SYMATTR InstName U1
SYMATTR Value TN3050H-12LY
SYMBOL voltage 336 0 R270
WINDOW 0 32 56 VTop 2
WINDOW 3 -32 56 VBottom 2
WINDOW 123 0 0 Left 0
WINDOW 39 0 0 Left 0
SYMATTR InstName V2
SYMATTR Value PULSE(0 5 1.66m 1n 1n 10m 20m)
SYMBOL Misc\\SCR 304 128 M270
WINDOW 3 -9 20 VLeft 2
SYMATTR InstName U2
SYMATTR Value TN3050H-12LY
SYMBOL voltage 256 176 R90
WINDOW 0 32 56 VTop 2
WINDOW 3 -32 56 VBottom 2
WINDOW 123 0 0 Left 0
WINDOW 39 0 0 Left 0
SYMATTR InstName V3
SYMATTR Value PULSE(0 5 11.66m 1n 1n 10m 20m)
TEXT -232 392 Left 2 !.include C:\\Users\\mohammad asfraf\\OneDrive\\Documents\\LTspiceXVII\\lib\\st_high-temperature_scr_pspice\\st_high-temperature_scr.lib
TEXT -234 408 Left 2 !.tran 0.1
