Version 4
SHEET 1 880 680
WIRE 176 48 48 48
WIRE 288 48 240 48
WIRE 352 48 288 48
WIRE 352 80 352 48
WIRE 240 96 192 96
WIRE 48 128 48 48
WIRE 192 128 192 96
WIRE 352 192 352 160
WIRE 192 240 192 208
WIRE 288 240 288 48
WIRE 288 240 192 240
WIRE 48 304 48 208
WIRE 208 304 48 304
WIRE 352 304 352 272
WIRE 352 304 208 304
WIRE 208 320 208 304
FLAG 208 320 0
SYMBOL voltage 48 112 R0
WINDOW 123 0 0 Left 0
WINDOW 39 0 0 Left 0
SYMATTR InstName V1
SYMATTR Value SINE(0 230 50)
SYMBOL res 336 64 R0
SYMATTR InstName R1
SYMATTR Value 8
SYMBOL voltage 352 176 R0
WINDOW 123 0 0 Left 0
WINDOW 39 0 0 Left 0
SYMATTR InstName V2
SYMATTR Value 50
SYMBOL Misc\\SCR 176 64 R270
SYMATTR InstName U1
SYMATTR Value TN3050H-12LY
SYMBOL voltage 192 112 R0
WINDOW 3 -60 146 Left 2
WINDOW 123 0 0 Left 0
WINDOW 39 0 0 Left 0
SYMATTR Value PULSE(0 5 3.052m 1n 1n 1m 20m)
SYMATTR InstName V3
TEXT -40 352 Left 2 !.inc C:\\Users\\mohammad asfraf\\OneDrive\\Documents\\LTspiceXVII\\lib\\st_high-temperature_scr_pspice\\st_high-temperature_scr.lib
TEXT -152 344 Left 2 !.tran 0.05
