Version 4
SHEET 1 880 680
WIRE 64 96 -64 96
WIRE 176 96 128 96
WIRE 240 96 176 96
WIRE 240 128 240 96
WIRE 128 144 80 144
WIRE 80 176 80 144
WIRE 240 240 240 208
WIRE -64 288 -64 96
WIRE 80 288 80 256
WIRE 176 288 176 96
WIRE 176 288 80 288
WIRE -64 464 -64 368
WIRE 96 464 -64 464
WIRE 240 464 240 320
WIRE 240 464 96 464
WIRE 96 480 96 464
FLAG 96 480 0
SYMBOL voltage -64 272 R0
WINDOW 123 0 0 Left 0
WINDOW 39 0 0 Left 0
SYMATTR InstName V1
SYMATTR Value SINE(0 230 50)
SYMBOL res 224 112 R0
SYMATTR InstName R1
SYMATTR Value 5
SYMBOL Misc\\SCR 64 112 R270
SYMATTR InstName U1
SYMATTR Value TN3050H-12LY
SYMBOL voltage 80 160 R0
WINDOW 3 -60 146 Left 2
WINDOW 123 0 0 Left 0
WINDOW 39 0 0 Left 0
SYMATTR Value PULSE(0 5 2.22m 1n 1n 1m 20m)
SYMATTR InstName V3
SYMBOL ind 224 224 R0
SYMATTR InstName L1
SYMATTR Value 2m
TEXT -152 512 Left 2 !.inc C:\\Users\\mohammad asfraf\\OneDrive\\Documents\\LTspiceXVII\\lib\\st_high-temperature_scr_pspice\\st_high-temperature_scr.lib
TEXT -264 504 Left 2 !.tran 0.05
