Version 4
SHEET 1 880 680
WIRE -16 48 -64 48
WIRE 144 48 64 48
WIRE 256 48 208 48
WIRE 336 48 256 48
WIRE 336 64 336 48
WIRE -64 96 -64 48
WIRE 208 112 208 96
WIRE 208 112 176 112
WIRE 336 176 336 144
WIRE 176 208 176 192
WIRE 256 208 256 48
WIRE 256 208 176 208
WIRE 336 304 336 256
WIRE -64 400 -64 176
WIRE 128 400 -64 400
WIRE 336 400 336 384
WIRE 336 400 128 400
WIRE 128 416 128 400
FLAG 128 416 0
SYMBOL voltage -64 80 R0
WINDOW 123 0 0 Left 0
WINDOW 39 0 0 Left 0
SYMATTR InstName V5
SYMATTR Value SINE(0 230 50)
SYMBOL res 80 32 R90
WINDOW 0 0 56 VBottom 2
WINDOW 3 32 56 VTop 2
SYMATTR InstName R2
SYMATTR Value 1m
SYMBOL res 320 48 R0
SYMATTR InstName R3
SYMATTR Value 10
SYMBOL Misc\\SCR 144 64 R270
WINDOW 3 52 29 VRight 2
SYMATTR Value TN6050HP-12
SYMATTR InstName U1
SYMBOL voltage 176 96 R0
WINDOW 3 -91 140 Left 2
WINDOW 123 0 0 Left 0
WINDOW 39 0 0 Left 0
WINDOW 0 28 28 Left 2
SYMATTR Value PULSE(0 5 2.5m 1n 1n 1m 20m)
SYMATTR InstName V1
SYMBOL ind 320 160 R0
SYMATTR InstName L1
SYMATTR Value 2m
SYMBOL voltage 336 288 R0
WINDOW 123 0 0 Left 0
WINDOW 39 0 0 Left 0
SYMATTR InstName V2
SYMATTR Value 10
TEXT -200 256 Left 2 !.tran 0.05
TEXT -224 448 Left 2 !.inc C:\\Users\\mohammad asfraf\\OneDrive\\Documents\\LTspiceXVII\\lib\\st_high-temperature_scr_pspice\\st_high-temperature_scr.lib
