Version 4
SHEET 1 880 680
WIRE 32 64 -16 64
WIRE 192 64 112 64
WIRE 304 64 256 64
WIRE 416 64 304 64
WIRE 496 64 416 64
WIRE 496 80 496 64
WIRE -16 112 -16 64
WIRE 256 128 256 112
WIRE 256 128 224 128
WIRE 416 144 416 64
WIRE 496 192 496 160
WIRE 224 224 224 208
WIRE 304 224 304 64
WIRE 304 224 224 224
WIRE -16 304 -16 192
WIRE 176 304 -16 304
WIRE 416 304 416 208
WIRE 416 304 176 304
WIRE 496 304 496 272
WIRE 496 304 416 304
WIRE 176 320 176 304
FLAG 176 320 0
SYMBOL voltage -16 96 R0
WINDOW 123 0 0 Left 0
WINDOW 39 0 0 Left 0
SYMATTR InstName V2
SYMATTR Value SINE(0 220 50 0 0 0)
SYMBOL res 128 48 R90
WINDOW 0 0 56 VBottom 2
WINDOW 3 32 56 VTop 2
SYMATTR InstName R1
SYMATTR Value 0.001
SYMBOL res 480 64 R0
SYMATTR InstName R4
SYMATTR Value 10
SYMBOL Misc\\SCR 192 80 R270
WINDOW 3 50 30 VRight 2
SYMATTR InstName U2
SYMATTR Value TN6050HP-12
SYMBOL voltage 224 112 R0
WINDOW 3 -79 125 Left 2
WINDOW 123 0 0 Left 0
WINDOW 39 0 0 Left 0
WINDOW 0 28 28 Left 2
SYMATTR Value PULSE(0 5 2.5m 1n 1n 1m 20m)
SYMATTR InstName V3
SYMBOL ind 480 176 R0
SYMATTR InstName L1
SYMATTR Value 0.0318
SYMBOL diode 432 208 R180
WINDOW 0 24 64 Left 2
WINDOW 3 24 0 Left 2
SYMATTR InstName D1
SYMATTR Value 1N4148
TEXT -232 360 Left 2 !.inc C:\\Users\\mohammad asfraf\\OneDrive\\Documents\\LTspiceXVII\\lib\\st_high-temperature_scr_pspice\\st_high-temperature_scr.lib
TEXT -152 272 Left 2 !.tran 0.05
