Version 4
SHEET 1 880 680
WIRE -16 48 -64 48
WIRE 144 48 64 48
WIRE 256 48 208 48
WIRE 336 48 256 48
WIRE -64 96 -64 48
WIRE 336 96 336 48
WIRE 208 112 208 96
WIRE 208 112 176 112
WIRE 176 208 176 192
WIRE 256 208 256 48
WIRE 256 208 176 208
WIRE -64 224 -64 176
WIRE 32 224 -64 224
WIRE 336 224 336 176
WIRE 336 224 32 224
WIRE 32 240 32 224
FLAG 32 240 0
SYMBOL voltage -64 80 R0
WINDOW 123 0 0 Left 0
WINDOW 39 0 0 Left 0
SYMATTR InstName V5
SYMATTR Value SINE(0 220 50 0 0 0)
SYMBOL res 80 32 R90
WINDOW 0 0 56 VBottom 2
WINDOW 3 32 56 VTop 2
SYMATTR InstName R2
SYMATTR Value 0.001
SYMBOL res 320 80 R0
SYMATTR InstName R3
SYMATTR Value 10
SYMBOL Misc\\SCR 144 64 R270
SYMATTR InstName U1
SYMATTR Value TN6050HP-12
SYMBOL voltage 176 96 R0
WINDOW 3 -2 151 Left 2
WINDOW 123 0 0 Left 0
WINDOW 39 0 0 Left 0
WINDOW 0 28 28 Left 2
SYMATTR Value PULSE(0 5 2.5m 1n 1n 1m 20m)
SYMATTR InstName V1
TEXT -200 256 Left 2 !.tran 0.05
TEXT -104 344 Left 2 !.inc C:\\Users\\mohammad asfraf\\OneDrive\\Documents\\LTspiceXVII\\lib\\st_high-temperature_scr_pspice\\st_high-temperature_scr.lib
