Version 4
SHEET 1 988 680
WIRE 640 0 80 0
WIRE 880 0 640 0
WIRE 80 80 80 0
WIRE 640 96 640 0
WIRE 880 96 880 0
WIRE 464 160 432 160
WIRE 592 160 544 160
WIRE 432 192 432 160
WIRE 640 192 640 160
WIRE 640 192 432 192
WIRE 80 224 80 160
WIRE 304 224 80 224
WIRE 640 224 640 192
WIRE 640 224 384 224
WIRE 880 224 880 160
WIRE 880 224 640 224
WIRE 640 272 640 224
WIRE 880 272 880 224
WIRE 80 288 80 224
WIRE 464 336 432 336
WIRE 592 336 544 336
WIRE 80 416 80 368
WIRE 432 416 432 336
WIRE 432 416 80 416
WIRE 640 416 640 336
WIRE 640 416 432 416
WIRE 880 416 880 336
WIRE 880 416 640 416
SYMBOL voltage 80 64 R0
WINDOW 123 0 0 Left 0
WINDOW 39 0 0 Left 0
SYMATTR InstName V1
SYMATTR Value 10
SYMBOL voltage 80 272 R0
WINDOW 123 0 0 Left 0
WINDOW 39 0 0 Left 0
SYMATTR InstName V2
SYMATTR Value 10
SYMBOL res 400 208 R90
WINDOW 0 0 56 VBottom 2
WINDOW 3 32 56 VTop 2
SYMATTR InstName R1
SYMATTR Value 10
SYMBOL diode 896 160 R180
WINDOW 0 24 64 Left 2
WINDOW 3 24 0 Left 2
SYMATTR InstName D1
SYMATTR Value 1N4148
SYMBOL diode 896 336 R180
WINDOW 0 24 64 Left 2
WINDOW 3 24 0 Left 2
SYMATTR InstName D2
SYMATTR Value 1N4148
SYMBOL voltage 560 160 R90
WINDOW 0 -32 56 VBottom 2
WINDOW 3 32 56 VTop 2
WINDOW 123 0 0 Left 0
WINDOW 39 0 0 Left 0
SYMATTR InstName V3
SYMATTR Value PULSE(0 2 0 1u 1u 5m 10m)
SYMBOL voltage 560 336 R90
WINDOW 0 -32 56 VBottom 2
WINDOW 3 32 56 VTop 2
WINDOW 123 0 0 Left 0
WINDOW 39 0 0 Left 0
SYMATTR InstName V4
SYMATTR Value PULSE(0 2 0 1u 1u 5m 10m)
SYMBOL Misc\\SCR 624 96 R0
SYMATTR InstName U1
SYMATTR Value TN3050H-12LY
SYMBOL Misc\\SCR 624 272 R0
SYMATTR InstName U2
SYMATTR Value TN3050H-12LY
TEXT 48 480 Left 2 !.tran 100m
TEXT 104 576 Left 2 !.include C:\\Users\\mohammad asfraf\\OneDrive\\Documents\\LTspiceXVII\\lib\\st_high-temperature_scr_pspice\\st_high-temperature_scr.lib
