Version 4
SHEET 1 888 680
WIRE 160 0 112 0
WIRE 256 0 240 0
WIRE 336 0 320 0
WIRE 112 96 112 0
WIRE 112 96 64 96
WIRE 160 96 112 96
WIRE 336 96 336 0
WIRE 336 96 224 96
WIRE 368 96 336 96
WIRE 480 96 448 96
WIRE 64 128 64 96
WIRE 480 128 480 96
WIRE 224 144 192 144
WIRE 192 160 192 144
WIRE 336 240 336 96
WIRE 336 240 192 240
WIRE 64 256 64 208
WIRE 272 256 64 256
WIRE 480 256 480 208
WIRE 480 256 272 256
WIRE 272 272 272 256
FLAG 272 272 0
SYMBOL voltage 64 112 R0
WINDOW 123 0 0 Left 0
WINDOW 39 0 0 Left 0
WINDOW 3 -156 56 Left 2
SYMATTR Value SINE(0 240 50)
SYMATTR InstName V1
SYMBOL Misc\\SCR 160 112 R270
WINDOW 3 -18 -48 VRight 2
SYMATTR Value TN6050HP-12
SYMATTR InstName U1
SYMBOL ind2 352 112 R270
WINDOW 0 32 56 VTop 2
WINDOW 3 5 56 VBottom 2
SYMATTR InstName L1
SYMATTR Value 9.6µ
SYMATTR Type ind
SYMBOL res 464 112 R0
SYMATTR InstName R1
SYMATTR Value 1k
SYMBOL res 256 -16 R90
WINDOW 0 0 56 VBottom 2
WINDOW 3 32 56 VTop 2
SYMATTR InstName R2
SYMATTR Value 12
SYMBOL cap 320 -16 R90
WINDOW 0 0 32 VBottom 2
WINDOW 3 32 32 VTop 2
SYMATTR InstName C1
SYMATTR Value 0.113µ
SYMBOL voltage 192 144 R0
WINDOW 3 43 74 Left 2
WINDOW 123 0 0 Left 0
WINDOW 39 0 0 Left 0
SYMATTR Value PULSE(0 1.12 5m 1n 1n 1m 20m)
SYMATTR InstName V2
TEXT 32 288 Left 2 !.tran 0.25
TEXT 264 328 Center 2 !.inc C:\\Users\\mohammad asfraf\\OneDrive\\Documents\\LTspiceXVII\\lib\\st_high-temperature_scr_pspice\\st_high-temperature_scr.lib
TEXT 80 -96 Left 5 ;SNUBBER CIRCUIT
