Version 4
SHEET 1 880 680
WIRE 256 48 240 48
WIRE 336 48 320 48
WIRE 32 96 16 96
WIRE 176 96 112 96
WIRE 336 96 336 48
WIRE 336 96 240 96
WIRE 256 160 240 160
WIRE 336 160 336 96
WIRE 336 160 320 160
WIRE 16 208 16 96
WIRE 16 208 -80 208
WIRE 32 208 16 208
WIRE 176 208 112 208
WIRE 336 208 336 160
WIRE 336 208 240 208
WIRE 512 208 336 208
WIRE 256 272 240 272
WIRE 336 272 336 208
WIRE 336 272 320 272
WIRE 512 288 512 208
WIRE 16 320 16 208
WIRE 32 320 16 320
WIRE 176 320 112 320
WIRE 336 320 336 272
WIRE 336 320 240 320
WIRE -80 448 -80 208
WIRE 208 448 -80 448
WIRE 512 448 512 368
WIRE 512 448 208 448
WIRE 208 464 208 448
FLAG 208 464 0
SYMBOL Misc\\SCR 176 80 M90
WINDOW 3 293 89 VLeft 2
SYMATTR Value TN3050H-12LY
SYMATTR InstName U1
SYMBOL res 496 272 R0
SYMATTR InstName R1
SYMATTR Value 5
SYMBOL voltage 240 48 R270
WINDOW 0 32 56 VTop 2
WINDOW 3 -32 56 VBottom 2
WINDOW 123 0 0 Left 0
WINDOW 39 0 0 Left 0
SYMATTR InstName Vg1
SYMATTR Value PULSE(0 230 2.66m 1n 1n 2.5m 20m)
SYMBOL voltage 128 96 R90
WINDOW 0 -32 56 VBottom 2
WINDOW 3 32 56 VTop 2
WINDOW 123 0 0 Left 0
WINDOW 39 0 0 Left 0
SYMATTR InstName V1
SYMATTR Value SINE(0 230 50 0 0 0)
SYMBOL Misc\\SCR 176 192 M90
WINDOW 3 198 90 VLeft 2
SYMATTR Value TN3050H-12LY
SYMATTR InstName U2
SYMBOL Misc\\SCR 176 304 M90
WINDOW 3 104 91 VLeft 2
SYMATTR Value TN3050H-12LY
SYMATTR InstName U3
SYMBOL voltage 128 208 R90
WINDOW 0 -32 56 VBottom 2
WINDOW 3 32 56 VTop 2
WINDOW 123 0 0 Left 0
WINDOW 39 0 0 Left 0
SYMATTR InstName V2
SYMATTR Value SINE(0 230 50 0 0 120)
SYMBOL voltage 128 320 R90
WINDOW 0 -32 56 VBottom 2
WINDOW 3 32 56 VTop 2
WINDOW 123 0 0 Left 0
WINDOW 39 0 0 Left 0
SYMATTR InstName V3
SYMATTR Value SINE(0 230 50 0 0 240)
SYMBOL voltage 240 160 R270
WINDOW 0 32 56 VTop 2
WINDOW 3 -32 56 VBottom 2
WINDOW 123 0 0 Left 0
WINDOW 39 0 0 Left 0
SYMATTR InstName Vg2
SYMATTR Value PULSE(0 230 16.03m 1n 1n 2.5m 20m)
SYMBOL voltage 240 272 R270
WINDOW 0 32 56 VTop 2
WINDOW 3 -32 56 VBottom 2
WINDOW 123 0 0 Left 0
WINDOW 39 0 0 Left 0
SYMATTR InstName Vg3
SYMATTR Value PULSE(0 230 9.35m 1n 1n 2.5m 20m)
TEXT -168 544 Left 2 !.inc C:\\Users\\mohammad asfraf\\OneDrive\\Documents\\LTspiceXVII\\lib\\st_high-temperature_scr_pspice\\st_high-temperature_scr.lib
TEXT -168 560 Left 2 !.tran 100m
